
**** 02/04/22 15:15:17 ******* PSpice 17.4.0 (Nov 2018) ******* ID# 0 ********

 ** Profile: "SCHEMATIC1-transient"  [ C:\Users\a0232073\Desktop\GWL_Models\BUF802\BUF802-PSpiceFiles\BUF802\buf802-pspicefiles\schem


 ****     CIRCUIT DESCRIPTION


******************************************************************************




** Creating circuit file "transient.cir" 
** WARNING: THIS AUTOMATICALLY GENERATED FILE MAY BE OVERWRITTEN BY SUBSEQUENT SIMULATIONS

*Libraries: 
* Profile Libraries :
* Local Libraries :
.LIB "../../../BUF802.lib" 
* From [PSPICE NETLIST] section of C:\cds_spb_home\cdssetup\OrCAD_PSpiceTIPSpice_Install\17.4.0\PSpice.ini file:
.lib "nom_pspti.lib" 
.lib "nom.lib" 

*Analysis directives: 
.TRAN  0 1000ns 0 1n 
.OPTIONS ADVCONV
.OPTIONS FILEMODELSEARCH
.PROBE64 V(alias(*)) I(alias(*)) W(alias(*)) D(alias(*)) NOISE(alias(*)) 
.INC "..\SCHEMATIC1.net" 



**** INCLUDING SCHEMATIC1.net ****
* source BUF802
R_Rload         OUT 0 R_NOISELESS 100
V_Vs+         VEE 0 -6
V_Vs-         VCC 0 6
V_Vin         N1107165 0  AC 1
+SIN 0 2 2e6 0 0 0
V_Vch         CLH 0 2
V_Vcl         CLL 0 -2
R_R5         IN+ N1103326  30.9 TC=0,0 
V_Vtemp         OC 0 27
C_C2         0 OUT  0.4p  TC=0,0 
R_R9         N1107165 IN+  50 TC=0,0 
R_R3         N1107310 IN+  50 TC=0,0 
L_L1         N1107310 0  8.2e-9  
R_R13         0 N1108368  200e3 TC=0,0 
R_R16         N1108035 0  19e3 TC=0,0 
R_R4         N1108368 IN+  800e3 TC=0,0 
R_R8         IN_BIAS N1107890  10e6 TC=0,0 
R_R10         N1108028 IN_AUX  2e3 TC=0,0 
C_C11         N1108035 N1108028  82e-12  TC=0,0 
R_R15         N1108035 OUT  72e3 TC=0,0 
C_C12         0 IN_AUX  100e-12  TC=0,0 
C_C7         N1107890 N1103326  330e-12  TC=0,0 
X_U6         N1107890 OUT VCC VEE CLH CLL IN_BIAS IN_AUX OC BUF802
E_U7         N1108028 0 VALUE {LIMIT(V(N1108368,N1108035)*1E6,-15V,+15V)}

**** RESUMING transient.cir ****
.END

**** 02/04/22 15:15:17 ******* PSpice 17.4.0 (Nov 2018) ******* ID# 0 ********

 ** Profile: "SCHEMATIC1-transient"  [ C:\Users\a0232073\Desktop\GWL_Models\BUF802\BUF802-PSpiceFiles\BUF802\buf802-pspicefiles\schem


 ****     Diode MODEL PARAMETERS


******************************************************************************




               X_U6.X_E_N.DVN  X_U6.X_I_NP.DNVF 
          IS  100.000000E-18  100.000000E-18 
          KF  316.227800E-12    3.162278E-12 


**** 02/04/22 15:15:17 ******* PSpice 17.4.0 (Nov 2018) ******* ID# 0 ********

 ** Profile: "SCHEMATIC1-transient"  [ C:\Users\a0232073\Desktop\GWL_Models\BUF802\BUF802-PSpiceFiles\BUF802\buf802-pspicefiles\schem


 ****     Resistor MODEL PARAMETERS


******************************************************************************




               R_NOISELESS     X_U6.R_NOISELESS 
  T_Measured   27              27            
   T_Current -273.15         -273.15         
           R    1               1            


**** 02/04/22 15:15:17 ******* PSpice 17.4.0 (Nov 2018) ******* ID# 0 ********

 ** Profile: "SCHEMATIC1-transient"  [ C:\Users\a0232073\Desktop\GWL_Models\BUF802\BUF802-PSpiceFiles\BUF802\buf802-pspicefiles\schem


 ****     Voltage Controlled Switch MODEL PARAMETERS


******************************************************************************




               X_U6.X_ESD_OUT.ESD_SW           X_U6.X_S1._S1   X_U6.X_S2._S2   
         RON   50                               1.000000E-03    1.000000E-03 
        ROFF    1.000000E+12                    1.000000E+09    1.000000E+09 
         VON     .5                             3.1             3.1          
        VOFF     .45                            2.9             2.9          


               X_U6.X_S5._S5   X_U6.X_S6._S6   X_U6.X_S7._S7   X_U6.X_S8._S8   
         RON    1.000000E-03    1.000000E-03    2.03            1.000000E-03 
        ROFF    1               1.000000E+03    1.72          112.000000E-12 
         VON    6               6               6             540            
        VOFF   -6              -6              -6              27            


**** 02/04/22 15:15:17 ******* PSpice 17.4.0 (Nov 2018) ******* ID# 0 ********

 ** Profile: "SCHEMATIC1-transient"  [ C:\Users\a0232073\Desktop\GWL_Models\BUF802\BUF802-PSpiceFiles\BUF802\buf802-pspicefiles\schem


 ****     Current Controlled Switch MODEL PARAMETERS


******************************************************************************




               X_U6.X_W1._W1   X_U6.X_W2._W2   X_U6.X_W3._W3   X_U6.X_W4._W4   
         RON    1.000000E+09    1.000000E+09    1.000000E+09    1.000000E+09 
        ROFF    1.000000E-03    1.000000E-03    1.000000E-03    1.000000E-03 
         ION     .73             .73             .73             .73         
        IOFF     .7              .7              .7              .7          


ERROR(ORPSIM-16583): Detected an imported model containing transistors or diodes. For such models, PSpice for TI supports a minimum of one and maximum of three traces. Reduce the number of traces and simulate again.


ABORTING SIMULATION
**** 02/04/22 15:15:17 ******* PSpice 17.4.0 (Nov 2018) ******* ID# 0 ********

 ** Profile: "SCHEMATIC1-transient"  [ C:\Users\a0232073\Desktop\GWL_Models\BUF802\BUF802-PSpiceFiles\BUF802\buf802-pspicefiles\schem


 ****     JOB STATISTICS SUMMARY


******************************************************************************



Node counts:
  Top level (NUNODS)                =          17
  External (NCNODS)                 =         101
  Total (NUMNOD)                    =         101

Total device count (NUMEL)          =         214
  Capacitors (C)                    =          26
  Diodes (D)                        =           4
  VCVS (E)                          =          13
  VCCS (G)                          =          29
  CCVS (H)                          =           1
  Current Sources (I)               =           7
  Inductors (L)                     =           5
  Resistors (R)                     =          96
  VSwitches (S)                     =           8
  Voltage Sources (V)               =          16
  ISwitches (W)                     =           4

Number of subcircuits (X)           =          24

Matrix statistics:
  Matrix size (NSTOP)               =         136
  Initial no. elements (NTTAR)      =         513
  No. elements w/ fillin (NTTBR)    =         513
  No. fillins (IFILL)               =           0
  No. overflows (NTTOV)             =           0
  No. LU operations (IOPS)          =           0
  Percent sparsity (PERSPA)         =      97.226

Analysis statistics:
  No. total time points (NUMTTP)    =           0
  No. rejected time points (NUMRTP) =           0
  No. iterations (NUMNIT)           =           0

Load Threads                        =           1

Runtime statistics:                       Seconds      Iterations
  Matrix load                       =        0.00
  Matrix solution                   =        0.00               1
  Readin                            =        1.55
  General setup                     =         .02
  CMI setup                     =        0.00
  Setup                             =        0.00
  DC sweep                          =        0.00               0
  Bias point                        =        0.00               0
  AC and noise                      =        0.00               0
  Total transient analysis          =        0.00
  Output                            =        0.00
  Overhead                          =         .06
  License check-out time            =      618.55
  Total job time (using Solver 1)   =        1.56
